<configuration xmlns:xsi="http://www.w3.org/2001/XMLSchema-instance" xsi:noNamespaceSchemaLocation="http://sumo.dlr.de/xsd/sumoConfiguration.xsd">

    <input>
        <net-file value="openmap.net.xml" />
        <route-files value="openmap_modified.rou.xml" />
    </input>
    <output>
        <tripinfo-output value="openmap.tripinfo.xml" />
    </output>

</configuration>