<routes xmlns:xsi="http://www.w3.org/2001/XMLSchema-instance" xsi:noNamespaceSchemaLocation="http://sumo.dlr.de/xsd/routes_file.xsd">
    <vType id="DEFAULT_VEHTYPE" vClass="passenger" speedDev="0.1" />
    <vType id="emergency" vClass="emergency" speedDev="0.1" minGap="0.5" color="255,0,0" speedFactor="1.5" />
    <vType id="commuter" vClass="passenger" speedDev="0.2" minGap="1.0" color="0,0,255" />
    <vType id="flexible" vClass="passenger" speedDev="0.3" minGap="2.0" color="0,255,0" />
    <vType id="taxi" vClass="taxi" speedDev="0.3" minGap="2.0" color="255,255,0" />
    <route id="commuter_fixed_0" edges="80912579#3 -80912579#3 -80912579#2 -80912579#1 -80912579#0 194344114#3 698854094 698854093 440897026#0 440897026#1 440897026#2 440897026#3 450614679 440897030 731817124#0 731817124#1 456541502 511204845#0 511204845#1 511204845#2 511204845#3 511204845#4 511204845#5 440897034 1069604914 550008864 440881630 440881631 550008867#0 550008867#1 550008867#2 550008867#3 550008867#4 550008867#5 550008867#6 550008867#7 550008867#8 550008867#9 550008867#10 550008867#11 550008867#12 550008867#13 481045536#0 481045536#1 481045536#2 481045536#3 481045536#4 481045537#0 481045537#1 481045537#2 441997991#1 440774133 312565415#0 312565415#1 312565415#2 312565415#3 312565415#4 298344725#0 298344725#1 440063026#0 440063026#1 440063026#2 -440881469#16 -440881469#15 -440881469#14 -440881469#13 -440881469#12 -440881469#11 -440881469#10" />
    <route id="commuter_fixed_1" edges="519662802#2 519662802#3 519662802#4 519662802#5 519662802#6 519662802#7 456382543#0 456382543#1 456382543#2 456382543#3 456382543#4 456382543#5 456382543#6 -456384920#2" />
    <route id="commuter_fixed_2" edges="440881630 440881631 550008867#0 550008867#1 550008867#2 550008867#3 550008867#4 550008867#5 550008867#6 550008867#7 550008867#8 248407680#0 248407680#1 248407681 248407675 481045539#0 481045539#1 481045539#2 481045539#3 481045539#4 481045539#5 481045539#6 444418079#0 444418079#1 -693763679 -29142233#4 -29142233#3 -29142233#2 -29142233#1 -29142233#0" />
    <route id="commuter_fixed_3" edges="734144754#1 481045543#5 481045543#6 481045543#7 443987648#4 443987648#5 450614676 453297326 450175300 904676306#0 904676306#1 904676304 904676303 29165238#0 29165238#1 29165238#2 29165238#3 29165238#4 29165238#5 29165238#6 457176635#0 457176635#1 457176635#2 453717286 457884963 457886989 446148167 462138643 29141670#0 29141670#1 29141670#2 29141670#3 29141670#4 29141670#5 636359875 445014537 519196116 441997991#0 441997991#1 440774133 312565415#0 312565415#1 312565415#2 312565415#3 312565415#4 298344725#0 298344725#1 440063026#0 440063026#1 440063026#2 -440881469#16 -440881469#15 -440881469#14 -440881469#13 -440881469#12 -440881469#11 -440881469#10 -440881469#9 -440881469#8 -440881469#7 -440881469#6 -440881469#5 -440881469#4 -543462683#7 -543462683#6 -543462683#5 -543462683#4" />
    <route id="taxi_fixed_0" edges="1172199237#0 1172199237#1 1172199237#2 1172199237#3 456541503 440769430 456541502 511204845#0 511204845#1 511204845#2 511204845#3 511204845#4 511204845#5 440897034 1069604914 550008864 519199421 248407685 248407677 457886991 995559507#0 995559507#1 448790074#0 448790074#1 448790074#2 448790074#3 444433525#0 444433525#1 444433525#2 444433525#3 444433525#4 444433525#5 444433525#6 444433525#7 444433525#8 444433525#9 624720027#0" />
    <route id="taxi_fixed_1" edges="-440881469#1 -440881469#0 -188246609 440881471#0 440881471#1 440881471#2 440881471#3 441997996#0 441997996#1 445078262#0 445078262#1 445078264#0 445078264#1 445078264#2 445078264#3 481045533 334124302#0 334124302#1 334124302#2 334124302#3 334124302#4 334124302#5 334124302#6 334124302#7 440771226 519199421 248407685 248407677 457886991 995559507#0 995559507#1 448790074#0 448790074#1 448790074#2 448790074#3 199898039 481045545#0 481045545#1 1157862092#0 1157862092#1 1157862092#2 444126143 904676306#0 904676306#1 904676304 199898038#0 444418076#0 444418076#1" />
    <route id="taxi_fixed_2" edges="576645493#0 576645493#1 576645493#2 576645493#3 526242004#0 526242004#1 526242004#2 526242004#3 248407674#0 248407674#1 248407674#2 526242006 248407682 248407684 1069604917 519197805 1069604914 550008864 440881630" />
    <route id="taxi_fixed_3" edges="444126136 450175546#0 450175546#1 450175546#2 -427564714#2 -427564714#1 428012644#0 428012644#1 428012644#2 428012644#3 443987645#3 450175545 444126139 444126141 450614677#0 450614677#1 450614677#2 450614677#3 450614677#4 233525478 462131778#0 462131778#1 462131778#2 481045546#0 481045546#1 481045546#2 457885321 995559511 526242006 248407682 248407684 1069604917 1069604918 442014420#0 442014420#1 442014420#2 -1172199237#3 -1172199237#2 -1172199237#1 -1172199237#0 243320230#0 243320230#1 243320230#2 243320230#3 243320230#4 243320230#5 -519662802#8 -519662802#7 -519662802#6" />
    <route id="flexible_fixed_0" edges="334124302#0 334124302#1 334124302#2 334124302#3 334124302#4 587667683#0 587667683#1 587667683#2 550008867#8 550008867#9 550008867#10 550008867#11 550008867#12 550008867#13 481045536#0 481045536#1 481045536#2 481045536#3 481045536#4 481045537#0 481045537#1 481045537#2 441997991#1 440774133 312565415#0 312565415#1 312565415#2 312565415#3 312565415#4 442016281 1156429258 1156429257 449785728#0 681164620#0 681164620#1 -322629006#3 -322629006#2 -322629006#1 -322629006#0 322629006#0" />
    <route id="flexible_fixed_1" edges="519199419#0 519199419#1 519199419#2 519199419#3 519199419#4 519199419#5 441943777 442014418#0 442014418#1 693764958 440771235 442014420#0 442014420#1 442014420#2 456541503 440769430 456541502 511204845#0 511204845#1 547065956#0" />
    <route id="flexible_fixed_2" edges="1373419751#0 1373419751#1 1373419750 1373419752 550008867#1 550008867#2 550008867#3 550008867#4 550008867#5 550008867#6 550008867#7 550008867#8 550008867#9 550008867#10 550008867#11 550008867#12 550008867#13 481045536#0 481045536#1 481045536#2 481045536#3 481045536#4 475301084 481045538#0 481045538#1 481045538#2 481045538#3 481045538#4 446148169#0 771832533#0 858600107#0 858600107#1 -858600107#1" />
    <route id="flexible_fixed_3" edges="440774131#1 445078262#0 445078262#1 445078264#0 445078264#1 445078264#2 445078264#3 481045533 334124302#0 334124302#1 334124302#2 334124302#3 334124302#4 334124302#5 334124302#6 334124302#7 440881629 624728714 1069604916 519199419#0 519199419#1 519199419#2 519199419#3 519199419#4 519199419#5 441943777 442014418#0 496009994#0 496009994#1 496009994#2 496009994#3 496009994#4 243320230#3 243320230#4 243320230#5 -519662802#8 -519662802#7 -519662802#6 -519662802#5 -519662802#4 -519662802#3 -519662802#2 -519662802#1 -519662802#0" />
    <route id="random_route_0" edges="457885320#0 457885320#1 624720029#0 624720029#1 624720029#2 624720029#3 624720029#4 624720029#5 624720029#6 759851921#0 759851921#1 481045548#0 481045548#1 481045548#2 759851920#0 759851920#1" />
    <route id="random_route_1" edges="-541821720#0 541821720#0 541821720#1 541821720#2 541821720#3" />
    <route id="random_route_2" edges="80912580#3 80912586#5 80912586#6 80912586#7 80912586#8 80912586#9 80912586#10 449880708#2 449880708#3 449880708#4 449880708#5 449880708#6 624728713#0 624728713#1 1149909833 526242009#0 526242009#1 526242009#2 248284670#0 248284670#1 248284670#2 102596672#0 102596672#1 442014418#0 442014418#1 693764958 442014419 519197805 1069604914 550008864 519199421 248407685 248407677 457886991 995559507#0" />
    <route id="random_route_3" edges="442084734 442084733#0 442084733#1 442084733#2 146688871 481045533 440881563 402932403#0 402932403#1 402932403#2 402932403#3 442084725#0 442084725#1 442084725#2 442084725#3 442084725#4 442232081 334124305#0 334124305#1 334124305#2 334124305#3 442232082#0 442232082#1 731817125#0 731817125#1 731817125#2 440881635 188246591#0 188246591#1" />
    <route id="random_route_4" edges="334124302#7 440771226 519199421 248407685 248407677 457886991 995559507#0 995559507#1 448790074#0 448790074#1 448790074#2 448790074#3 199898039 481045545#0 481045545#1 1157862092#0 1157862092#1 1157862092#2 444126143 904676306#0 904676306#1 448790076 444018069 457886987 443987642#0 443987642#1 443987642#2 697672670 1022170339 1005131461 1005131460#0 697584892#0 697584892#1 697584892#2" />
    <route id="random_route_5" edges="462131778#0 462131778#1 462131778#2 481045546#0 481045546#1 481045546#2 457885321 995559511 526242006 248407682 248407684 1069604917 1069604918 442014420#0 442014420#1 442014420#2 456541503 519199606#0 519199606#1 519199606#2 450614679" />
    <route id="random_route_6" edges="-80912580#2 -80912580#1 -80912580#0 -80912578#2 -80912578#1 -80912578#0 449880708#4 449880708#5 449880708#6 624728713#0 624728713#1 1149909833 526242009#0 526242009#1 526242009#2 449070492 102596674 80912591 248282336#0 248282336#1 248282336#2 1272406241#0 1272406241#1 1272406241#2 -1272406237#4 -1272406237#3 -1272406237#2 -1272406237#1 -1272406237#0 -29141057#2" />
    <route id="random_route_7" edges="194344114#2 194344114#3 698854094 698854093 440897026#0 440897026#1 440897026#2 440897026#3 450614679 440897030 731817124#0 731817124#1 456541502 511204845#0 511204845#1 511204845#2 511204845#3 511204845#4 511204845#5 440897034 1069604914 550008864 519199421 248407685 248407677 457886991 995559507#0 995559507#1 448790074#0 448790074#1 448790074#2 448790074#3 199898039 462138646 444428461#0 444428461#1 734144751#0 734144751#1 734144751#2 734144754#0 734144754#1" />
    <route id="random_route_8" edges="1172199237#2 1172199237#3 456541503 519199606#0 519199606#1 519199606#2 450614679 440897028#0 440897028#1 440897028#2" />
    <route id="random_route_9" edges="45838048#8 440765420#2 440765420#3 440765420#4 440765420#5 440765420#6 440765420#7 451042488 442016280#0 442016280#1 442016280#2 442016280#3 527878498#0 527878498#1 527878498#2 440881471#3 441997996#0 441997996#1 445078262#0 445078262#1 445078264#0 445078264#1 445078264#2 445078264#3 481045533 440881563 402932403#0 402932403#1 402932403#2 402932403#3 442084725#0 442084725#1 442084725#2 442084736 442084732#2 442084732#3 1024423911#0 1024423911#1 1024423910#2" />
    <route id="random_route_10" edges="45838048#8 440765420#2 440765420#3 440765420#4 440765420#5 440765420#6 440765420#7 451042488 442016280#0 442016280#1 442016280#2 442016280#3 527878498#0 527878498#1 527878498#2 440881471#3 441997996#0 441997996#1 445078262#0 445078262#1 445078264#0 445078264#1 445078264#2 445078264#3 481045533 440881563 402932403#0 402932403#1 402932403#2 402932403#3 442084725#0 442084725#1 442084725#2 442084725#3 442084725#4 442232081 334124305#0 334124305#1 334124305#2 334124305#3 442232082#0 442232082#1 731817125#0 519199606#2 1144924622#0 1144924622#1 1156195448 1144924623 450614678#0 80912589#0 80912589#1 80912589#2 -80912578#3 80912580#0 80912580#1" />
    <route id="random_route_11" edges="-541821720#0 541821720#0 541821720#1 536906827#2 442084731 771906759 771906760 442084735 442084734 442084733#0 442084733#1 442084733#2 146688871 119029072#0 119029072#1 228124191 228124190 462138643 451041313 29118096 457886988 27318126#0 27318126#1 27318126#2 481045541#0 481045541#1 481045541#2 199898409#0 199898409#1 448790074#0 448790074#1 448790074#2 448790074#3 199898039 481045545#0 481045545#1 1157862092#0 1157862092#1 1157862092#2 448790075 450920620#0 450920620#1 453294516#0 -706690145#2" />
    <route id="random_route_12" edges="993462498#0 993462498#1 993462498#2 993462498#3 993462498#4 -440771230#0 334124304#0 334124304#1 440897382#5 440897382#6 440897382#7 440897382#8 1312886242 146688871 119029072#0 119029072#1 228124191 228124190 462138643 451041313 29118096 29165179 453717287#0 453717287#1 453717287#2 453717288 462138644#0 462138644#1 462138644#2 462138644#3 462138644#4 462138644#5 897147337#0 897147337#1 897147337#2 445014534 232796360#0 232796360#1 697670540 697671217 697670541 697670542 232967187 443969225 -443981914" />
    <route id="random_route_13" edges="444149842#0 444149842#1 444149842#2 27318117#0 27318117#1 444149844 444232018 550008867#0 550008867#1 550008867#2 550008867#3 550008867#4 550008867#5 550008867#6 550008867#7 550008867#8 248407680#0 248407680#1 248407681 248407675 444418077#0 444418077#1 29141189#0 29141189#1 29141189#2 29141189#3 624720025#0 624720025#1 624720025#2 624720025#3 457886989 446148167 462138643 451041313 29118096 29165179 453717287#0 453717287#1 453717287#2 453717289#0 453717289#1 453717289#2 453717289#3 29141762#0 29141762#1" />
    <route id="random_route_14" edges="-444418076#8 -444418076#7 444433525#5 444433525#6 444433525#7 444433525#8 444433525#9 624720027#0 624720027#1 624720027#2 624720027#3 457176635#0 457176635#1 457176635#2 453717286 27318126#0 27318126#1 27318126#2" />
    <route id="random_route_15" edges="440765420#7 451042488 442016280#0 442016280#1 442016280#2 442016280#3 527878498#0 527878498#1 527878498#2 440881471#3 441997996#0 441997996#1 445078262#0 445078262#1 445078264#0 445078264#1 445078264#2 445078264#3 481045533 440881563 402932403#0 402932403#1 402932403#2 402932403#3 442084725#0 442084725#1 442084725#2 442084725#3 442084725#4 442232081 334124305#0 334124305#1 334124305#2 334124305#3 440769445 442232083#0 442232083#1 442087558#0 442087558#1 442087558#2 188246611#0 188246611#1 541821716#0 541821716#1 -507573212#2 507573212#2 541821715#0" />
    <route id="random_route_16" edges="-993462493#0 445078264#0 1172188468#0 1172188468#1 481045534#2 481045536#0 481045536#1 481045536#2 481045536#3 481045536#4 481045537#0 481045537#1 481045537#2 441997991#1 440774133 312565415#0 312565415#1 312565415#2 312565415#3 312565415#4 298344725#0 298344725#1 440063026#0 -359990752#3" />
    <route id="random_route_17" edges="526242004#2 526242004#3 444126149 624720029#0 624720029#1 624720029#2 987053826#0 987053826#1 987053826#2 987053826#3 987053826#4 987053826#5 987053826#6 987053827 734144750#2 734144750#3 734144750#4 1272406238#0 1272406238#1 1272406238#2 -987053830 -1272406237#4 -1272406237#3 -1272406237#2 -1272406237#1" />
    <route id="random_route_18" edges="119029072#0 119029072#1 228124191 228124190 462138643 29141670#0 29141670#1 29141670#2" />
    <route id="random_route_19" edges="448790073#1 737631342#0 737631342#1 737631342#2 737631342#3 737631342#4 737631342#5 737631342#6 737631342#7 932534388#0 932534388#1 932534388#2 526242004#0 526242004#1 526242004#2 526242004#3 526242005#0 526242005#1 526242005#2 995559512 457886991 995559507#0 995559507#1 448790074#0 448790074#1 448790074#2 448790074#3 444433525#0 444433525#1" />
    <route id="random_route_20" edges="184827126#1 184827126#2 184827126#3 -184827126#3 -184827126#2 -184827126#1 -184827126#0 -184739533#2 -184739533#1 -184739533#0 444422638#0 444422638#1 444422638#2 444422640 550008874#0 550008874#1 550008874#2 550008874#3 550008877 481045549#0 481045549#1 576645493#0 576645493#1 576645493#2 576645493#3 526242004#0 526242004#1 526242004#2 526242004#3 526242005#0 526242005#1 526242005#2 995559512 457886990 995559510#0 995559510#1 448781893 29142233#0 29142233#1 29142233#2 29142233#3 29142233#4 693763679 444418080#0 444418080#1 448790072#0 448790072#1 448790073#0 1373419751#0 1373419751#1 1373419750 1373419752 550008867#1 550008867#2 550008867#3 550008867#4 550008867#5 550008867#6 550008867#7 550008867#8 550008867#9 550008867#10 550008867#11 550008867#12 550008867#13 481045536#0 481045536#1 481045536#2 481045536#3 1024423914#0 1024423914#1 -1024423914#1" />
    <route id="random_route_21" edges="624728713#1 1149909833 526242009#0 526242009#1 526242009#2 248284670#0 -519662802#11 -519662802#10 -519662802#9 -519662802#8 456382543#0 456382543#1 456382543#2 456382543#3 456382543#4 456382543#5 456382543#6 1172199237#0 1172199237#1 1172199237#2 1172199237#3 456541503 519199606#0 519199606#1 519199606#2 450614679 440897028#0 440897028#1 440897028#2 442232083#0 442232083#1 442087558#0 442087558#1 442087558#2 444351851 233810278 440769414 233810276 442141003 442232085#0 79174943#0 79174943#1 449860494#0 449860494#1 449860494#2 449860493 449860492#0 449860492#1 449825090 449825091 255645805#1 255645805#2 444400943 450920618 451042488 442016280#0 442016280#1 442016280#2 442016280#3 527878498#0 527878498#1 527878498#2 527878498#3" />
    <route id="random_route_22" edges="-440881469#11 -440881469#10 -440881469#9 -440881469#8 -440881469#7 -440881469#6 -440881469#5 -440881469#4 -440881469#3 -440881469#2 -440881469#1 -440881469#0 -188246609 440881471#0 440881471#1 440881471#2 527878498#3 527878498#4 312565415#0 312565415#1 312565415#2 312565415#3 312565415#4 442016281 1156429258 1156429257 449785728#0 449785728#1 232967182#0 -322629017#1" />
    <route id="random_route_23" edges="458696110#1 458696110#2 458696110#3 458696117 458696120#0 519662337 526242009#1 526242009#2 248284670#0 248284670#1 248284670#2 102596672#0 102596672#1 442014418#0 442014418#1 693764958 442014419 519197805 1069604914 550008864 440881630 440881631 550008867#0 550008867#1 550008867#2 550008867#3 550008867#4 550008867#5 550008867#6 550008867#7 550008867#8 550008867#9 550008867#10 550008867#11 550008867#12 550008867#13 481045536#0 481045536#1 481045536#2 481045536#3 481045536#4 481045537#0 481045537#1 481045537#2 441997991#1 440774133 312565415#0 312565415#1 312565415#2 312565415#3 312565415#4 298344725#0 298344725#1 440063026#0 440063026#1 440063026#2 -440881469#16 -440881469#15 -440881469#14 -440881469#13 -440881469#12 -440881469#11 -440881469#10 -440881469#9 -440881469#8 -440881469#7 -440881469#6 -440881469#5 -440881469#4 -543462683#7" />
    <route id="random_route_24" edges="734144751#1 -734144753#1 -734144753#0 450614677#2 450614677#3 450614677#4 233525478 462131778#0 462131778#1 462131778#2 481045546#0 481045546#1 481045546#2 457885321 995559511 526242006 248407682 248407684 1069604917 1069604918 442014420#0 442014420#1 442014420#2 -1172199237#3 -1172199237#2 -1172199237#1 -1172199237#0 243320230#0 243320230#1 243320230#2 -496009994#4 -496009994#3" />
    <route id="random_route_25" edges="1373650659#2 1373650660#0 1373650660#1 -29140969#6 -29140969#5 -29140969#4 29140969#4 29140969#5" />
    <route id="random_route_26" edges="457885320#1 624720029#0 624720029#1 624720029#2 987053826#0 987053826#1 987053826#2 987053826#3 987053826#4 987053826#5 987053826#6 987053827 481045543#0 481045543#1 481045543#2 481045543#3 481045543#4 481045543#5 481045543#6 481045543#7 443987648#4 443987648#5 450614676 453297326 450175300 904676306#0 904676306#1 448790076 444018069 457886987 445014534 232796360#0 232796360#1 697670537 232602656 449785730" />
    <route id="random_route_27" edges="440063026#0 440063026#1 440063026#2 -440881469#16 -440881469#15 -440881469#14 -440881469#13 -440881469#12 -440881469#11 -440881469#10 -440881469#9 -440881469#8 -440881469#7 -440881469#6 -440881469#5 -440881469#4 -440881469#3 -440881469#2 -440881469#1 -440881469#0 -188246609 440881471#0 440881471#1 440881471#2 440881471#3 441997996#0 441997996#1 445078262#0 445078262#1 445078264#0 445078264#1 445078264#2 445078264#3 481045533 440881563 402932403#0 402932403#1 402932403#2 402932403#3 442084725#0 442084725#1 442084725#2 442084725#3 442084725#4 442232081 334124305#0 334124305#1 334124305#2 334124305#3 440769445 442232083#0 442232083#1 442087558#0 442087558#1 442087558#2 188246611#0 188246611#1 541821716#0 541821716#1 -507573212#2 -507573212#1 -507573212#0 -507573213 -541821720#3 -541821720#2 -541821720#1 -541821720#0 541821720#0" />
    <route id="random_route_28" edges="334124302#1 334124302#2 334124302#3 334124302#4 334124302#5 334124302#6 334124302#7 440771226 440881630 440881631 550008867#0 550008867#1 550008867#2 550008867#3" />
    <route id="random_route_29" edges="79174943#0 79174943#1 449860494#0 449860494#1 449860494#2 449860493 449860492#0 449860492#1 449825090 449825091 255645805#1 255645805#2 444400943 450920618 451042488 442016280#0 442016280#1 442016280#2 442016280#3 527878498#0 527878498#1 527878498#2 440881471#3 441997996#0 441997996#1 445078262#0 445078262#1 445078264#0 445078264#1 445078264#2 445078264#3 119029072#0 119029072#1 228124191 228124190 462138643 451041313 29118096 29165179 453717287#0 453717287#1 453717287#2 453717288 462138645#0 462138645#1 462138645#2 462138645#3 462138645#4 462138645#5 462138645#6 462138645#7 462138645#8 462138645#9 462138645#10 462138645#11 462138645#12" />
    <route id="random_route_30" edges="427564710#6 427564710#7 -427564710#7 -427564710#6 -427564710#5 -427564710#4 -427564710#3 -427564710#2 -427564710#1 -427564710#0 453040323 453294515 686139777 444126141 450614677#0 450614677#1 450614677#2 450614677#3 450614677#4 233525478 462131778#0 462131778#1 462131778#2 481045546#0 481045546#1 481045546#2 457885321 995559511 526242006 248407682 248407684 1069604917 519197805 1069604915 440897382#0 440897382#1 440897382#2 440897382#3 440897382#4 440897382#5 1144276305#0 1144276305#1 402932403#2 402932403#3 442084725#0 442084725#1 442084725#2 442084736 442084732#2 442084732#3 1024423911#0 1024423911#1 -1024423911#1 -1024423911#0" />
    <route id="random_route_31" edges="29141657#7 29118096 457886988 27318126#0 27318126#1 27318126#2 481045541#0 481045541#1 481045541#2 589390785#0 589390785#1 589390785#2 995559506 995559508 457885321 995559511 526242006 248407682 248407684 1069604917 1069604918 442014420#0 442014420#1 442014420#2 456541503 519199606#0 519199606#1 519199606#2 450614679 440897028#0 440897028#1 440897028#2 442232083#0 442232083#1 442087558#0 442087558#1 442087558#2 444351851 233810278 440769414 233810276 442141003 442232085#0 79174943#0 79174943#1 449860494#0 449860494#1 449860494#2 449860493 449860492#0 449860492#1 449825090 449825091 255645805#1 255645805#2 444400943 450920618 451042488 442016280#0 442016280#1 442016280#2 442016280#3 527878498#0 527878498#1 1340165295#0 1340165295#1 441997995#0 441997995#1 441997995#2 45838048#0 45838048#1 45838048#2 540756795#0 540756795#1" />
    <route id="random_route_32" edges="462138645#10 462138645#11 462138645#12 462138645#13 462138645#14 462138645#15 462138646 233525478 462131778#0 462131778#1 462131778#2 481045546#0 481045546#1 481045546#2 457885321 995559511 444126144#0 444126144#1 299795207 444149841 444149842#0 444149842#1 444149842#2" />
    <route id="random_route_33" edges="444418076#1 444418076#2 444418076#3 462138645#11 462138645#12 462138645#13 462138645#14 462138645#15 462138646 233525478 462131778#0 462131778#1 462131778#2 481045546#0 481045546#1 481045546#2 457885321 995559511 444126144#0 444126144#1 299795207 444149841 444149842#0 603486755 603486756#2 603486757 444419547#2 449070494 449070493 444419548 248284668#0 248284668#1 458696117 458696120#0 519662337 526242009#1 526242009#2 449070492 102596674 80912591" />
    <route id="random_route_34" edges="481045543#1 481045543#2 481045543#3 481045543#4 481045543#5 481045543#6 481045543#7 443987648#4 443987648#5 444126142 450614677#0 450614677#1 450614677#2 450614677#3 450614677#4 233525478 462131778#0 462131778#1 462131778#2 481045546#0 481045546#1 481045546#2 457885321 995559511 526242006 248407682 248407684 1069604917 1069604918 442014420#0 442014420#1 442014420#2 456541503 519199606#0 519199606#1 519199606#2 450614679 440897028#0 440897028#1 440897028#2 442232083#0 442232083#1 442087558#0 442087558#1 442087558#2 444351851 233810278 440769414 233810276 442141003 442232085#0" />
    <route id="random_route_35" edges="547065954#1 511204845#4 511204845#5 440897034 1069604914 550008864 519199421 248407685 248407677 457886991 995559507#0 995559507#1 448790074#0 448790074#1 448790074#2 448790074#3 199898039 462138646 444428461#0 444428461#1 734144750#0 734144750#1 -987053827 -987053826#6 -987053826#5 -987053826#4 734144752#0 734144752#1" />
    <route id="random_route_36" edges="322629006#0 449785727#7 298344724#0 298344724#1 449785728#0 449785728#1 232967182#0 232967182#1 449706509 449785730 443987641#0 443987641#1 29141657#0 29141657#1 29141657#2 29141657#3 29141657#4 29141657#5 29141657#6 29141657#7 29118096 457886988 27318126#0 27318126#1 27318126#2 481045541#0 481045541#1 481045541#2 589390785#0 589390785#1 589390785#2 995559506 995559508 457885321 995559511 526242006 248407682 248407684 1069604917 1069604918 442014420#0 442014420#1 442014420#2 456541503 519199606#0 519199606#1 519199606#2 450614679 440897028#0 440897028#1 440897028#2 442232083#0 442232083#1 442087558#0 442087558#1 442087558#2 444351851 233810278 440769414 233810276 442141003 442232085#0 79174943#0 79174943#1 449860494#0 449860494#1 449860494#2 449860493 449860492#0 449860492#1 449825090 449825091 255645805#1 255645805#2 444400943 450920618 451042488 442016280#0 442016280#1 442016280#2 442016280#3 527878498#0 527878498#1 1340165295#0 1340165295#1 441997995#0 441997995#1 441997995#2 45838048#0 45838048#1 45838048#2 540756795#0 540756795#1" />
    <route id="random_route_37" edges="444351852#2 536906827#0 536906827#1 536906827#2 442084731 771906759 771906760 442084735 442084734 442084733#0 442084733#1 442084733#2 146688871 481045534#0 481045534#1 481045534#2 481045536#0 481045536#1 481045536#2 481045536#3 481045536#4 481045537#0 481045537#1 481045537#2 441997991#1 440774133 312565415#0 312565415#1 312565415#2 312565415#3 312565415#4 298344725#0 298344725#1 440063026#0 440063026#1 440063026#2 -440881469#16 -440881469#15 -440881469#14 -440881469#13 -440881469#12 -440881469#11 -440881469#10 -440881469#9 -440881469#8 -440881469#7 -440881469#6 -440881469#5 -440881469#4 440881469#4 440881469#5 440881469#6 440881469#7" />
    <route id="random_route_38" edges="448314188 453040323 453294515 686139777 444126141 450614677#0 450614677#1 450614677#2 450614677#3 450614677#4 233525478 462131778#0 462131778#1 462131778#2 481045546#0 481045546#1 481045546#2 457885320#0 457885320#1 624720029#0 624720029#1 624720029#2 987053826#0" />
    <route id="random_route_39" edges="-545840833#1 -545840833#0 334124305#3 440769442#0 440769442#1 511204845#0 511204845#1 511204845#2 511204845#3 511204845#4 511204845#5 440897034 1069604914 550008864 519199421 248407685 248407677 457886991 995559507#0 995559507#1 448790074#0 448790074#1 448790074#2 448790074#3 199898039 481045545#0 481045545#1 1157862092#0 1157862092#1 1157862092#2 444126143 904676306#0 904676306#1 448790076 444018069 457886987 445014534 232796360#0 938371854 232967180#1 233337680 444014976 444014977#0 444014977#1 444014977#2" />
    <route id="random_route_40" edges="1272406238#1 1272406238#2 -987053830 1272406241#3 1272406241#4 1272406239#0 1272406239#1 1272406239#2 1272406239#3 734144749#0 734144749#1 462131778#0 462131778#1 462131778#2 481045546#0 481045546#1 481045546#2 457885321 995559511 526242006 248407682 248407684 1069604917 1069604918 442014420#0 442014420#1 442014420#2 456541503 519199606#0 519199606#1 519199606#2 450614679 440897028#0 440897028#1 440897028#2 442232083#0 442232083#1 442087558#0 442084727#0 442084727#1 442084727#2 771906763" />
    <route id="random_route_41" edges="1037695960#1 1037695960#2 -29140969#5 -29140969#4 -29140969#3 -29140969#2 -29140969#1 -29140969#0 -481045543#2 -481045543#1 -481045543#0 -987053827 -987053826#6 -987053826#5 -987053826#4 -987053826#3 -987053826#2 -987053826#1 -987053826#0 624720029#3 624720029#4 624720029#5 624720029#6" />
    <route id="random_route_42" edges="583112067#0 583112067#1 -583112067#1 -583112067#0 -322629006#2 -322629006#1 -322629006#0 429011445#7 298344724#0 298344724#1 449785728#0 449785728#1 232967182#0 232967182#1 449706509 449785730 443987641#0 443987641#1 29141657#0 29141657#1 29141657#2 29141657#3 29141657#4 29141657#5 29141657#6 29141657#7 29118096 457886988 27318126#0 27318126#1 27318126#2 481045541#0 481045541#1 481045541#2 589390785#0 589390785#1 589390785#2 995559506 995559508 457885321 995559511 526242006 248407682 248407684 1069604917 1069604918 442014420#0 442014420#1 442014420#2 456541503 519199606#0 519199606#1 519199606#2 1144924622#0 1144924622#1 1156195448 1144924623 450614678#0 450614678#1 450614678#2 450614678#3 80912586#0 80912586#1 80912586#2 80912586#3 80912586#4 80912586#5 80912586#6 80912586#7" />
    <route id="random_route_43" edges="449785727#3 -322620773#0 429011445#4 429011445#5 429011445#6 429011445#7 298344724#0 298344724#1 449785728#0 449785728#1 232967182#0 232967182#1 449706509 449785730 443987641#0 443987641#1 29141657#0 29141657#1 29141657#2 29141657#3 29141657#4 29141657#5 29141657#6 29141657#7 29118096 457886988 27318126#0 27318126#1 27318126#2 -624720026 -29141189#3 -29141189#2 -29141189#1 -29141189#0 444418078#0 444418078#1 481045539#3 481045539#4 481045539#5 481045539#6 693765746 448790072#0 448790072#1 448790073#0 1373419751#0 1373419751#1 1373419750 1373419752" />
    <route id="random_route_44" edges="29141670#2 29141670#3 29141670#4 29141670#5 636359873 29141657#1 29141657#2 29141657#3 29141657#4 29141657#5 29141657#6 29141657#7 29118096 29165179 453717287#0 453717287#1 453717287#2 453717288 462138644#0 462138644#1 462138644#2 462138644#3 462138644#4 462138644#5 897147337#0 897147337#1 897147337#2 445014534 232796360#0 232796360#1 697670537 232602656 449785730" />
    <route id="random_route_45" edges="444418076#4 444418076#5 444418076#6 444418076#7 444418076#8 444418076#9 444418076#10 444418076#11 444418076#12 444418076#13 444418076#14 481045541#2 589390785#0 589390785#1 589390785#2 995559506 995559508 457885321 995559511 526242006 248407682 248407684 1069604917 1069604918 442014420#0 442014420#1 442014420#2 456541503 519199606#0 519199606#1 519199606#2 1144924622#0 1144924622#1 1156195448 1144924623 450614678#0 450614678#1 450614678#2 450614678#3 80912586#0 80912586#1 80912586#2 80912586#3 80912586#4 80912586#5 80912586#6 80912586#7 80912586#8 80912586#9 80912586#10 449880708#2" />